Version 4
SHEET 1 880 680
WIRE 0 -368 -320 -368
WIRE 128 -368 0 -368
WIRE 624 -368 128 -368
WIRE 624 -272 624 -368
WIRE 0 -256 0 -368
WIRE 128 -256 128 -368
WIRE 0 -160 0 -176
WIRE 0 -160 -208 -160
WIRE 512 -160 0 -160
WIRE 128 -144 128 -176
WIRE 336 -144 128 -144
WIRE 128 -128 128 -144
WIRE -208 -96 -208 -160
WIRE -320 -80 -320 -368
WIRE 0 -80 0 -160
WIRE 80 -80 0 -80
WIRE 512 -80 512 -160
WIRE 576 -80 512 -80
WIRE -320 32 -320 0
WIRE -208 32 -208 -16
WIRE -208 32 -320 32
WIRE 128 32 128 -16
WIRE 128 32 -208 32
WIRE 624 64 624 -16
WIRE 128 80 128 32
FLAG 336 -144 OUT
FLAG 128 80 0
FLAG 624 64 0
DATAFLAG 0 -160 ""
SYMBOL res 112 -272 R0
SYMATTR InstName R1
SYMATTR Value 10kR
SYMBOL res -16 -272 R0
SYMATTR InstName R2
SYMATTR Value 10kR
SYMBOL voltage -320 -96 R0
WINDOW 123 0 0 Left 2
WINDOW 39 0 0 Left 2
SYMATTR InstName V1
SYMATTR Value 3.3
SYMBOL voltage -208 -112 R0
WINDOW 123 0 0 Left 2
WINDOW 39 0 0 Left 2
SYMATTR InstName V2
SYMATTR Value PULSE(3.3 0 0 0 0 10u 20u)
SYMBOL AutoGenerated\\Si1922EDH 128 -80 R0
SYMATTR InstName U1
SYMBOL AutoGenerated\\Si1922EDH 624 -80 R0
SYMATTR InstName U2
SYMBOL LED 608 -272 R0
SYMATTR InstName D1
SYMATTR Value NSPW500BS
SYMBOL res 608 -224 R0
SYMATTR InstName R4
SYMATTR Value 282R
TEXT -624 176 Left 2 !.tran 100u
